#!/usr/bin/perl -w

#------------------------------------------------------------------------------
#                  GEOS-Chem Global Chemical Transport Model                  !
#------------------------------------------------------------------------------
#BOP
#
# !MODULE: cleanJobs
#
# !DESCRIPTION: This Perl script removes all individual job scripts
#  from MERRA2 data processing jobs from the job directory.
#\\
#\\
# !USES:
#
  require 5.003;        # Need this version of Perl or newer
  use strict;           # Force IMPLICIT NONE-style declarations
#
# !PUBLIC MEMBER FUNCTIONS:
#
# getDefaults($$)
# &main         
#
# !CALLING SEQUENCE:
#  cleanJobs
#
# !REVISION HISTORY: 
#  24 Oct 2011 - R. Yantosca - Initial version, based on GEOS_5/perl/cleanJobs
#EOP
#------------------------------------------------------------------------------
#                  GEOS-Chem Global Chemical Transport Model                  !
#------------------------------------------------------------------------------
#BOP
#
# !IROUTINE: getDefaults
#
# !DESCRIPTION: Routine getDefaults reads the input file and returns the
#  name of the directory where job files are stored.
#\\
#\\
# !INTERFACE:
#
sub getDefaults($) {
#
# !INPUT PARAMETERS:
#
  # $fileName : File containing default settings to be read
  my ( $fileName ) = @_;
#
# !RETURN VALUE:
#
  my $jobDir  = "";  # Directory where job scripts are found
#
# !CALLING SEQUENCE:
#  $jobDir = &getDefaults( $fileName );
#
# !REVISION HISTORY:
#  24 Oct 2011 - R. Yantosca - Initial version, based on GEOS_5/perl/cleanJobs
#EOP
#------------------------------------------------------------------------------
#BOC
#
# !LOCAL VARIABLES:
#
  my @file    = "";
 
  # Read the input file
  open( I, "<$fileName" ) or die "Cannot open $fileName!\n";
  chomp( @file = <I> );
  close( I );

  # Parse each line until we find the job directory
  for ( my $i = 0; $i < scalar( @file ); $i++ ) {
    if ( $file[$i] =~ "==> Job Directory" ) { $jobDir = $file[++$i]; }
  }

  # Return to main
  return( $jobDir );
}
#EOC
#------------------------------------------------------------------------------
#                  GEOS-Chem Global Chemical Transport Model                  !
#------------------------------------------------------------------------------
#BOP
#
# !IROUTINE: main
#
# !DESCRIPTION: Main is the driver program for the cleanJobs script.
#\\
#\\
# !INTERFACE:
#
sub main() {
#
# !CALLING SEQUENCE:
#  &main();
#
# !REVISION HISTORY:
#  24 Oct 2011 - R. Yantosca - Initial version, based on GEOS_5/perl/cleanJobs
#  29 Feb 2012 - R. Yantosca - Also remove date files in the jobs directory
#  20 Sep 2013 - R. Yantosca - Now reads input file "doGeosFp.input"
#  04 Nov 2013 - R. Yantosca - Minor fix to delete job files
#EOP
#------------------------------------------------------------------------------
#BOC
#
# !LOCAL VARIABLES:
#
  my $cmd    = "";
  my $file   = "";
  my @files  = ();
  my $jobDir = &getDefaults( "doMerra2.input" );
  
  # Read all log files in the directory
  opendir( D, "$jobDir" ) or die "$jobDir is an invalid directory\n";
  chomp( @files = readdir( D ) );
  closedir( D );

  # Loop thru each file
  foreach $file ( @files ) {

    # Remove job files
    if ( $file =~ m/job.doMerra2Multi/ ) {
      $cmd = "rm -f $jobDir/$file";
      print "$cmd\n";
      qx( $cmd );
    } 

    # Remove date files
    elsif ( $file =~ "201" ) {
      $cmd = "rm -f $jobDir/$file";
      print "$cmd\n";
      qx( $cmd );
    }
  }				

  # Return w/ status
  return( $? );
}
#EOC

# Call main driver routine
main();

# Exit and pass status code to Unix shell
exit( $? );
